Results/first_multistage/new_ev_logic_4/network_debug.txt
Pandapower Network Debug Info
==================================================

BUS:
          name  vn_kv type  zone  in_service   geo
0        Bus 8    0.4    b  None        True  None
1        Bus 9    0.4    b  None        True  None
2       Bus 10    0.4    b  None        True  None
3       Bus 11    0.4    b  None        True  None
4       Bus 16    0.4    b  None        True  None
5       Bus 17    0.4    b  None        True  None
6       Bus 18    0.4    b  None        True  None
7       Bus 19    0.4    b  None        True  None
8       Bus 20    0.4    b  None        True  None
9       Bus 21   15.0    b  None        True  None
10      Bus 22   15.0    b  None        True  None
11      Bus 23   15.0    b  None        True  None
12      Bus 24   15.0    b  None        True  None
13      Bus 25   15.0    b  None        True  None
14      Bus 26   15.0    b  None        True  None
15    Sub MV 2   15.0    b  None        True  None
16    Sub LV 2    0.4    b  None        True  None
17    Sub MV 5   15.0    b  None        True  None
18    Sub LV 5    0.4    b  None        True  None
19  Slack HV 0   70.0    b  None        True  None
20  Slack MV 0   15.0    b  None        True  None
21  Slack HV 1   70.0    b  None        True  None
22  Slack MV 1   15.0    b  None        True  None
--------------------------------------------------

LOAD:
            name  bus      p_mw        q_mvar  const_z_percent  const_i_percent  sn_mva  scaling  in_service type
0      Load 8 T1    0  0.003148  5.226327e-04              0.0              0.0     NaN      1.0        True  wye
1      Load 8 T2    0  0.002835  5.564662e-04              0.0              0.0     NaN      1.0        True  wye
2      Load 8 T3    0  0.003087  4.951153e-04              0.0              0.0     NaN      1.0        True  wye
3      Load 8 T4    0  0.003081  5.198070e-04              0.0              0.0     NaN      1.0        True  wye
4      Load 8 T5    0  0.003200  6.139608e-04              0.0              0.0     NaN      1.0        True  wye
5      Load 8 T6    0  0.002371  6.088115e-04              0.0              0.0     NaN      1.0        True  wye
6      Load 8 T7    0  0.001503 -4.463673e-04              0.0              0.0     NaN      1.0        True  wye
7      Load 8 T8    0 -0.002155 -1.080049e-03              0.0              0.0     NaN      1.0        True  wye
8      Load 8 T9    0 -0.004034 -3.801815e-03              0.0              0.0     NaN      1.0        True  wye
9     Load 8 T10    0 -0.005843 -6.180631e-03              0.0              0.0     NaN      1.0        True  wye
10    Load 8 T11    0 -0.009052 -5.363486e-03              0.0              0.0     NaN      1.0        True  wye
11    Load 8 T12    0 -0.010100 -5.356115e-03              0.0              0.0     NaN      1.0        True  wye
12    Load 8 T13    0 -0.009543 -5.357644e-03              0.0              0.0     NaN      1.0        True  wye
13    Load 8 T14    0 -0.006958 -5.545395e-03              0.0              0.0     NaN      1.0        True  wye
14    Load 8 T15    0 -0.004643 -2.036814e-03              0.0              0.0     NaN      1.0        True  wye
15    Load 8 T16    0 -0.000230 -4.066172e-04              0.0              0.0     NaN      1.0        True  wye
16    Load 8 T17    0  0.002652  6.648063e-04              0.0              0.0     NaN      1.0        True  wye
17    Load 8 T18    0  0.002740  6.142633e-04              0.0              0.0     NaN      1.0        True  wye
18    Load 8 T19    0  0.002306  4.941560e-04              0.0              0.0     NaN      1.0        True  wye
19    Load 8 T20    0  0.002668  4.604348e-04              0.0              0.0     NaN      1.0        True  wye
20    Load 8 T21    0  0.002619  6.485714e-04              0.0              0.0     NaN      1.0        True  wye
21    Load 8 T22    0  0.002780  6.290674e-04              0.0              0.0     NaN      1.0        True  wye
22    Load 8 T23    0  0.002352  6.337161e-04              0.0              0.0     NaN      1.0        True  wye
23    Load 8 T24    0  0.002461  5.884729e-04              0.0              0.0     NaN      1.0        True  wye
24     Load 9 T1    1  0.004900  1.013460e-03              0.0              0.0     NaN      1.0        True  wye
25     Load 9 T2    1  0.004688  1.156996e-03              0.0              0.0     NaN      1.0        True  wye
26     Load 9 T3    1  0.004863  9.635760e-04              0.0              0.0     NaN      1.0        True  wye
27     Load 9 T4    1  0.004941  8.696770e-04              0.0              0.0     NaN      1.0        True  wye
28     Load 9 T5    1  0.004745  9.571783e-04              0.0              0.0     NaN      1.0        True  wye
29     Load 9 T6    1  0.003681  9.388020e-04              0.0              0.0     NaN      1.0        True  wye
30     Load 9 T7    1  0.002040  9.363513e-04              0.0              0.0     NaN      1.0        True  wye
31     Load 9 T8    1  0.000493 -1.147482e-06              0.0              0.0     NaN      1.0        True  wye
32     Load 9 T9    1 -0.003721 -1.867529e-03              0.0              0.0     NaN      1.0        True  wye
33    Load 9 T10    1 -0.006286 -1.991910e-03              0.0              0.0     NaN      1.0        True  wye
34    Load 9 T11    1 -0.006216 -4.075375e-03              0.0              0.0     NaN      1.0        True  wye
35    Load 9 T12    1 -0.007819 -4.071419e-03              0.0              0.0     NaN      1.0        True  wye
36    Load 9 T13    1 -0.006840 -4.071764e-03              0.0              0.0     NaN      1.0        True  wye
37    Load 9 T14    1 -0.006228 -1.994695e-03              0.0              0.0     NaN      1.0        True  wye
38    Load 9 T15    1 -0.002825 -1.285398e-03              0.0              0.0     NaN      1.0        True  wye
39    Load 9 T16    1  0.000792 -5.338034e-07              0.0              0.0     NaN      1.0        True  wye
40    Load 9 T17    1  0.004399  1.082501e-03              0.0              0.0     NaN      1.0        True  wye
41    Load 9 T18    1  0.004318  1.261275e-03              0.0              0.0     NaN      1.0        True  wye
42    Load 9 T19    1  0.004525  1.240716e-03              0.0              0.0     NaN      1.0        True  wye
43    Load 9 T20    1  0.004963  9.987683e-04              0.0              0.0     NaN      1.0        True  wye
44    Load 9 T21    1  0.004663  1.207754e-03              0.0              0.0     NaN      1.0        True  wye
45    Load 9 T22    1  0.003505  1.108436e-03              0.0              0.0     NaN      1.0        True  wye
46    Load 9 T23    1  0.004058  1.295943e-03              0.0              0.0     NaN      1.0        True  wye
47    Load 9 T24    1  0.005131  1.259382e-03              0.0              0.0     NaN      1.0        True  wye
48    Load 10 T1    2  0.005457  1.593155e-03              0.0              0.0     NaN      1.0        True  wye
49    Load 10 T2    2  0.000917  1.908605e-03              0.0              0.0     NaN      1.0        True  wye
50    Load 10 T3    2  0.005036  1.503806e-03              0.0              0.0     NaN      1.0        True  wye
51    Load 10 T4    2  0.005083  1.453556e-03              0.0              0.0     NaN      1.0        True  wye
52    Load 10 T5    2  0.005969  1.713749e-03              0.0              0.0     NaN      1.0        True  wye
53    Load 10 T6    2  0.005373  1.505198e-03              0.0              0.0     NaN      1.0        True  wye
54    Load 10 T7    2  0.003670  1.368548e-03              0.0              0.0     NaN      1.0        True  wye
55    Load 10 T8    2  0.001087  5.390087e-04              0.0              0.0     NaN      1.0        True  wye
56    Load 10 T9    2 -0.002645 -7.831550e-04              0.0              0.0     NaN      1.0        True  wye
57   Load 10 T10    2 -0.005442 -2.645215e-03              0.0              0.0     NaN      1.0        True  wye
58   Load 10 T11    2 -0.002372 -5.390087e-04              0.0              0.0     NaN      1.0        True  wye
59   Load 10 T12    2 -0.000539 -5.390087e-04              0.0              0.0     NaN      1.0        True  wye
60   Load 10 T13    2 -0.000795 -5.390087e-04              0.0              0.0     NaN      1.0        True  wye
61   Load 10 T14    2 -0.005764 -2.645215e-03              0.0              0.0     NaN      1.0        True  wye
62   Load 10 T15    2 -0.003129 -1.368548e-03              0.0              0.0     NaN      1.0        True  wye
63   Load 10 T16    2  0.000681  5.390087e-04              0.0              0.0     NaN      1.0        True  wye
64   Load 10 T17    2  0.006338  1.463021e-03              0.0              0.0     NaN      1.0        True  wye
65   Load 10 T18    2  0.004706  1.784093e-03              0.0              0.0     NaN      1.0        True  wye
66   Load 10 T19    2 -0.001369  1.445010e-03              0.0              0.0     NaN      1.0        True  wye
67   Load 10 T20    2  0.005387  1.559740e-03              0.0              0.0     NaN      1.0        True  wye
68   Load 10 T21    2  0.004602  1.542897e-03              0.0              0.0     NaN      1.0        True  wye
69   Load 10 T22    2  0.006076  1.944497e-03              0.0              0.0     NaN      1.0        True  wye
70   Load 10 T23    2 -0.000993  1.616039e-03              0.0              0.0     NaN      1.0        True  wye
71   Load 10 T24    2  0.006804  1.337010e-03              0.0              0.0     NaN      1.0        True  wye
72    Load 11 T1    3  0.007328  2.799735e-03              0.0              0.0     NaN      1.0        True  wye
73    Load 11 T2    3  0.006453  2.416270e-03              0.0              0.0     NaN      1.0        True  wye
74    Load 11 T3    3  0.007586  2.682635e-03              0.0              0.0     NaN      1.0        True  wye
75    Load 11 T4    3  0.008901  3.077140e-03              0.0              0.0     NaN      1.0        True  wye
76    Load 11 T5    3  0.009032  2.632123e-03              0.0              0.0     NaN      1.0        True  wye
77    Load 11 T6    3  0.008134  2.852036e-03              0.0              0.0     NaN      1.0        True  wye
78    Load 11 T7    3  0.004677  2.645215e-03              0.0              0.0     NaN      1.0        True  wye
79    Load 11 T8    3  0.000831  5.390087e-04              0.0              0.0     NaN      1.0        True  wye
80    Load 11 T9    3 -0.002645 -1.297655e-03              0.0              0.0     NaN      1.0        True  wye
81   Load 11 T10    3 -0.004610 -1.818529e-03              0.0              0.0     NaN      1.0        True  wye
82   Load 11 T11    3 -0.006028 -2.645215e-03              0.0              0.0     NaN      1.0        True  wye
83   Load 11 T12    3 -0.005195 -2.645215e-03              0.0              0.0     NaN      1.0        True  wye
84   Load 11 T13    3 -0.006478 -2.645215e-03              0.0              0.0     NaN      1.0        True  wye
85   Load 11 T14    3 -0.004610 -2.481924e-03              0.0              0.0     NaN      1.0        True  wye
86   Load 11 T15    3 -0.000223  0.000000e+00              0.0              0.0     NaN      1.0        True  wye
87   Load 11 T16    3  0.002645  1.223921e-03              0.0              0.0     NaN      1.0        True  wye
88   Load 11 T17    3  0.006291  2.571012e-03              0.0              0.0     NaN      1.0        True  wye
89   Load 11 T18    3  0.008838  2.574381e-03              0.0              0.0     NaN      1.0        True  wye
90   Load 11 T19    3  0.005400  2.871342e-03              0.0              0.0     NaN      1.0        True  wye
91   Load 11 T20    3  0.007166  2.537901e-03              0.0              0.0     NaN      1.0        True  wye
92   Load 11 T21    3  0.007029  2.905249e-03              0.0              0.0     NaN      1.0        True  wye
93   Load 11 T22    3  0.006383  2.545474e-03              0.0              0.0     NaN      1.0        True  wye
94   Load 11 T23    3  0.006447  2.391850e-03              0.0              0.0     NaN      1.0        True  wye
95   Load 11 T24    3  0.008678  2.903075e-03              0.0              0.0     NaN      1.0        True  wye
96    Load 16 T1    4  0.008169 -9.941964e-04              0.0              0.0     NaN      1.0        True  wye
97    Load 16 T2    4  0.007858 -9.249786e-04              0.0              0.0     NaN      1.0        True  wye
98    Load 16 T3    4  0.009998 -8.707955e-04              0.0              0.0     NaN      1.0        True  wye
99    Load 16 T4    4  0.007084 -1.057442e-03              0.0              0.0     NaN      1.0        True  wye
100   Load 16 T5    4  0.008459 -8.160887e-04              0.0              0.0     NaN      1.0        True  wye
101   Load 16 T6    4  0.008969 -1.000013e-03              0.0              0.0     NaN      1.0        True  wye
102   Load 16 T7    4  0.006535 -7.614124e-04              0.0              0.0     NaN      1.0        True  wye
103   Load 16 T8    4  0.004724 -7.715967e-04              0.0              0.0     NaN      1.0        True  wye
104   Load 16 T9    4  0.000789 -1.082128e-03              0.0              0.0     NaN      1.0        True  wye
105  Load 16 T10    4 -0.001102 -8.897416e-04              0.0              0.0     NaN      1.0        True  wye
106  Load 16 T11    4 -0.001401 -1.068997e-03              0.0              0.0     NaN      1.0        True  wye
107  Load 16 T12    4 -0.003887 -1.385363e-03              0.0              0.0     NaN      1.0        True  wye
108  Load 16 T13    4 -0.000541 -1.034246e-03              0.0              0.0     NaN      1.0        True  wye
109  Load 16 T14    4 -0.002572 -6.996542e-04              0.0              0.0     NaN      1.0        True  wye
110  Load 16 T15    4 -0.000109 -9.007073e-04              0.0              0.0     NaN      1.0        True  wye
111  Load 16 T16    4  0.006928 -7.570831e-04              0.0              0.0     NaN      1.0        True  wye
112  Load 16 T17    4  0.008440 -8.651462e-04              0.0              0.0     NaN      1.0        True  wye
113  Load 16 T18    4  0.009250 -7.334071e-04              0.0              0.0     NaN      1.0        True  wye
114  Load 16 T19    4  0.008838 -6.992378e-04              0.0              0.0     NaN      1.0        True  wye
115  Load 16 T20    4  0.008919 -8.195443e-04              0.0              0.0     NaN      1.0        True  wye
116  Load 16 T21    4  0.007307 -9.362938e-04              0.0              0.0     NaN      1.0        True  wye
117  Load 16 T22    4  0.007572 -8.042287e-04              0.0              0.0     NaN      1.0        True  wye
118  Load 16 T23    4  0.009679 -8.371608e-04              0.0              0.0     NaN      1.0        True  wye
119  Load 16 T24    4  0.008288 -9.171456e-04              0.0              0.0     NaN      1.0        True  wye
120   Load 17 T1    5  0.010011  2.596364e-03              0.0              0.0     NaN      1.0        True  wye
121   Load 17 T2    5  0.010922  3.270272e-03              0.0              0.0     NaN      1.0        True  wye
122   Load 17 T3    5  0.012607  2.906339e-03              0.0              0.0     NaN      1.0        True  wye
123   Load 17 T4    5  0.012412  3.215984e-03              0.0              0.0     NaN      1.0        True  wye
124   Load 17 T5    5  0.010845  2.864888e-03              0.0              0.0     NaN      1.0        True  wye
125   Load 17 T6    5  0.010885  3.042293e-03              0.0              0.0     NaN      1.0        True  wye
126   Load 17 T7    5  0.008387  3.360884e-03              0.0              0.0     NaN      1.0        True  wye
127   Load 17 T8    5  0.003956  1.899739e-03              0.0              0.0     NaN      1.0        True  wye
128   Load 17 T9    5  0.000859  1.240127e-03              0.0              0.0     NaN      1.0        True  wye
129  Load 17 T10    5 -0.003607 -3.311228e-03              0.0              0.0     NaN      1.0        True  wye
130  Load 17 T11    5 -0.003930 -1.884112e-03              0.0              0.0     NaN      1.0        True  wye
131  Load 17 T12    5 -0.005002 -2.756556e-03              0.0              0.0     NaN      1.0        True  wye
132  Load 17 T13    5 -0.007052 -2.678468e-03              0.0              0.0     NaN      1.0        True  wye
133  Load 17 T14    5 -0.003097 -7.346523e-04              0.0              0.0     NaN      1.0        True  wye
134  Load 17 T15    5  0.000404 -2.300642e-05              0.0              0.0     NaN      1.0        True  wye
135  Load 17 T16    5  0.004251  1.354861e-03              0.0              0.0     NaN      1.0        True  wye
136  Load 17 T17    5  0.010226  2.685636e-03              0.0              0.0     NaN      1.0        True  wye
137  Load 17 T18    5  0.010385  3.215437e-03              0.0              0.0     NaN      1.0        True  wye
138  Load 17 T19    5  0.010973  2.867962e-03              0.0              0.0     NaN      1.0        True  wye
139  Load 17 T20    5  0.010706  3.404168e-03              0.0              0.0     NaN      1.0        True  wye
140  Load 17 T21    5  0.011652  2.721229e-03              0.0              0.0     NaN      1.0        True  wye
141  Load 17 T22    5  0.011756  2.676670e-03              0.0              0.0     NaN      1.0        True  wye
142  Load 17 T23    5  0.010602  2.515443e-03              0.0              0.0     NaN      1.0        True  wye
143  Load 17 T24    5  0.008772  2.825748e-03              0.0              0.0     NaN      1.0        True  wye
144   Load 18 T1    6  0.002140  1.387143e-03              0.0              0.0     NaN      1.0        True  wye
145   Load 18 T2    6  0.001276  1.264669e-03              0.0              0.0     NaN      1.0        True  wye
146   Load 18 T3    6  0.000467  1.361888e-03              0.0              0.0     NaN      1.0        True  wye
147   Load 18 T4    6 -0.001369  1.323844e-03              0.0              0.0     NaN      1.0        True  wye
148   Load 18 T5    6  0.001724  1.464252e-03              0.0              0.0     NaN      1.0        True  wye
149   Load 18 T6    6  0.002548  1.479597e-03              0.0              0.0     NaN      1.0        True  wye
150   Load 18 T7    6  0.001429  1.218132e-03              0.0              0.0     NaN      1.0        True  wye
151   Load 18 T8    6 -0.000983 -5.390087e-04              0.0              0.0     NaN      1.0        True  wye
152   Load 18 T9    6 -0.005189 -2.645215e-03              0.0              0.0     NaN      1.0        True  wye
153  Load 18 T10    6 -0.004610 -1.368548e-03              0.0              0.0     NaN      1.0        True  wye
154  Load 18 T11    6 -0.002645 -7.976820e-04              0.0              0.0     NaN      1.0        True  wye
155  Load 18 T12    6 -0.002699 -1.368548e-03              0.0              0.0     NaN      1.0        True  wye
156  Load 18 T13    6  0.000228  0.000000e+00              0.0              0.0     NaN      1.0        True  wye
157  Load 18 T14    6 -0.004610 -1.967378e-03              0.0              0.0     NaN      1.0        True  wye
158  Load 18 T15    6 -0.004097 -1.368548e-03              0.0              0.0     NaN      1.0        True  wye
159  Load 18 T16    6  0.000254  0.000000e+00              0.0              0.0     NaN      1.0        True  wye
160  Load 18 T17    6  0.003607  1.445712e-03              0.0              0.0     NaN      1.0        True  wye
161  Load 18 T18    6  0.003536  1.404311e-03              0.0              0.0     NaN      1.0        True  wye
162  Load 18 T19    6  0.002652  1.456261e-03              0.0              0.0     NaN      1.0        True  wye
163  Load 18 T20    6  0.001443  1.279277e-03              0.0              0.0     NaN      1.0        True  wye
164  Load 18 T21    6 -0.001369  1.421619e-03              0.0              0.0     NaN      1.0        True  wye
165  Load 18 T22    6  0.002952  1.299763e-03              0.0              0.0     NaN      1.0        True  wye
166  Load 18 T23    6  0.002182  1.335674e-03              0.0              0.0     NaN      1.0        True  wye
167  Load 18 T24    6  0.003959  1.253798e-03              0.0              0.0     NaN      1.0        True  wye
168   Load 19 T1    7  0.005666  2.219869e-03              0.0              0.0     NaN      1.0        True  wye
169   Load 19 T2    7  0.006436  1.847437e-03              0.0              0.0     NaN      1.0        True  wye
170   Load 19 T3    7  0.005208  2.068992e-03              0.0              0.0     NaN      1.0        True  wye
171   Load 19 T4    7  0.006787  2.295081e-03              0.0              0.0     NaN      1.0        True  wye
172   Load 19 T5    7  0.006116  1.950435e-03              0.0              0.0     NaN      1.0        True  wye
173   Load 19 T6    7  0.006521  2.417408e-03              0.0              0.0     NaN      1.0        True  wye
174   Load 19 T7    7  0.004086  1.966262e-03              0.0              0.0     NaN      1.0        True  wye
175   Load 19 T8    7  0.001399  7.985555e-04              0.0              0.0     NaN      1.0        True  wye
176   Load 19 T9    7 -0.001885 -5.412339e-04              0.0              0.0     NaN      1.0        True  wye
177  Load 19 T10    7 -0.004476 -1.380161e-03              0.0              0.0     NaN      1.0        True  wye
178  Load 19 T11    7 -0.006675 -2.673184e-03              0.0              0.0     NaN      1.0        True  wye
179  Load 19 T12    7 -0.007681 -3.285972e-03              0.0              0.0     NaN      1.0        True  wye
180  Load 19 T13    7 -0.007447 -2.678121e-03              0.0              0.0     NaN      1.0        True  wye
181  Load 19 T14    7 -0.005720 -7.258851e-04              0.0              0.0     NaN      1.0        True  wye
182  Load 19 T15    7 -0.002225 -5.419518e-04              0.0              0.0     NaN      1.0        True  wye
183  Load 19 T16    7  0.002757  1.363423e-03              0.0              0.0     NaN      1.0        True  wye
184  Load 19 T17    7  0.005016  2.078341e-03              0.0              0.0     NaN      1.0        True  wye
185  Load 19 T18    7  0.004984  2.254191e-03              0.0              0.0     NaN      1.0        True  wye
186  Load 19 T19    7  0.006317  2.085552e-03              0.0              0.0     NaN      1.0        True  wye
187  Load 19 T20    7  0.006002  2.353475e-03              0.0              0.0     NaN      1.0        True  wye
188  Load 19 T21    7  0.006750  2.239110e-03              0.0              0.0     NaN      1.0        True  wye
189  Load 19 T22    7  0.005952  2.191524e-03              0.0              0.0     NaN      1.0        True  wye
190  Load 19 T23    7  0.005450  1.880251e-03              0.0              0.0     NaN      1.0        True  wye
191  Load 19 T24    7  0.006794  1.922987e-03              0.0              0.0     NaN      1.0        True  wye
192   Load 20 T1    8  0.006510 -1.418456e-03              0.0              0.0     NaN      1.0        True  wye
193   Load 20 T2    8  0.006950 -1.544117e-03              0.0              0.0     NaN      1.0        True  wye
194   Load 20 T3    8  0.005744 -1.390363e-03              0.0              0.0     NaN      1.0        True  wye
195   Load 20 T4    8  0.005148 -1.521349e-03              0.0              0.0     NaN      1.0        True  wye
196   Load 20 T5    8  0.006924 -1.709138e-03              0.0              0.0     NaN      1.0        True  wye
197   Load 20 T6    8  0.005108 -1.277284e-03              0.0              0.0     NaN      1.0        True  wye
198   Load 20 T7    8  0.003913 -1.321555e-03              0.0              0.0     NaN      1.0        True  wye
199   Load 20 T8    8  0.002209 -1.352928e-03              0.0              0.0     NaN      1.0        True  wye
...

EXT_GRID:
        name  bus  vm_pu  va_degree  slack_weight  in_service
0  ExtGrid 0   19    1.0        0.0           1.0        True
1  ExtGrid 1   21    1.0        0.0           1.0        True
--------------------------------------------------

LINE:
       name std_type  from_bus  to_bus  length_km  r_ohm_per_km  x_ohm_per_km  c_nf_per_km  g_us_per_km  max_i_ka   df  parallel  type  in_service   geo
0    Line 0     None        20      15   0.400000        0.5502         0.429          0.0          0.0      0.23  1.0         1  None        True  None
1   Line 34     None        18       5   0.225610        0.5502         0.429          0.0          0.0      0.23  1.0         1  None        True  None
2   Line 36     None        18       7   0.196469        0.5502         0.429          0.0          0.0      0.23  1.0         1  None        True  None
3   Line 37     None        18       8   0.050000        0.5502         0.429          0.0          0.0      0.23  1.0         1  None        True  None
4   Line 38     None        10       9   0.141421        0.5502         0.429          0.0          0.0      0.23  1.0         1  None        True  None
5    Line 7     None        22      17   1.100000        0.5502         0.429          0.0          0.0      0.23  1.0         1  None        True  None
6    Line 8     None        15       9   0.316228        0.5502         0.429          0.0          0.0      0.23  1.0         1  None        True  None
7   Line 40     None        11      10   0.200000        0.5502         0.429          0.0          0.0      0.23  1.0         1  None        True  None
8   Line 43     None        14      13   0.200000        0.5502         0.429          0.0          0.0      0.23  1.0         1  None        True  None
9   Line 44     None         1       0   0.172047        0.5502         0.429          0.0          0.0      0.23  1.0         1  None        True  None
10  Line 46     None         3       0   0.194165        0.5502         0.429          0.0          0.0      0.23  1.0         1  None        True  None
11  Line 47     None         2       1   0.263059        0.5502         0.429          0.0          0.0      0.23  1.0         1  None        True  None
12  Line 17     None        17      12   0.141421        0.5502         0.429          0.0          0.0      0.23  1.0         1  None        True  None
13  Line 18     None        17      13   0.223607        0.5502         0.429          0.0          0.0      0.23  1.0         1  None        True  None
14  Line 20     None        16       0   0.136015        0.5502         0.429          0.0          0.0      0.23  1.0         1  None        True  None
15  Line 52     None         8       4   0.353836        0.5502         0.429          0.0          0.0      0.23  1.0         1  None        True  None
16  Line 53     None         6       5   0.253180        0.5502         0.429          0.0          0.0      0.23  1.0         1  None        True  None
--------------------------------------------------

TRAFO:
                  name std_type  hv_bus  lv_bus  sn_mva  vn_hv_kv  vn_lv_kv  vk_percent  vkr_percent  pfe_kw  i0_percent  shift_degree tap_side  tap_neutral  tap_min  tap_max  tap_step_percent  tap_step_degree  tap_pos tap_changer_type  id_characteristic_table  tap_dependency_table  parallel   df  in_service
0  MV/LV Transformer 2     None      15      16    10.0      15.0       0.4        0.01         0.01    0.01        0.01           0.0     None          NaN      NaN      NaN               NaN              NaN      NaN              NaN                     <NA>                 False         1  1.0        True
1  MV/LV Transformer 5     None      17      18    10.0      15.0       0.4        0.01         0.01    0.01        0.01           0.0     None          NaN      NaN      NaN               NaN              NaN      NaN              NaN                     <NA>                 False         1  1.0        True
2  Slack Transformer 0     None      19      20    40.0      70.0      15.0        0.01         0.01    0.01        0.01           0.0     None          NaN      NaN      NaN               NaN              NaN      NaN              NaN                     <NA>                 False         1  1.0        True
3  Slack Transformer 1     None      21      22    40.0      70.0      15.0        0.01         0.01    0.01        0.01           0.0     None          NaN      NaN      NaN               NaN              NaN      NaN              NaN                     <NA>                 False         1  1.0        True
--------------------------------------------------

RES_BUS:
       vm_pu  va_degree      p_mw    q_mvar
0   0.986524  -0.324761  0.002461  0.000588
1   0.978026  -0.560500  0.005131  0.001259
2   0.970707  -0.777149  0.006804  0.001337
3   0.979059  -0.477765  0.008678  0.002903
4   0.988136  -0.663583  0.008288 -0.000917
5   0.987143  -0.274332  0.008772  0.002826
6   0.982768  -0.368594  0.003959  0.001254
7   0.994039  -0.142401  0.006794  0.001923
8   0.997501  -0.141663  0.005888 -0.001262
9   0.999810  -0.002004  0.017180  0.009476
10  0.999787  -0.002202  0.026383  0.014980
11  0.999772  -0.002326  0.020415  0.011495
12  0.999670  -0.011060  0.018554  0.008831
13  0.999648  -0.012325  0.024445 -0.012100
14  0.999628  -0.012683  0.031579  0.011853
15  0.999881  -0.001386  0.000000  0.000000
16  0.999881  -0.001382  0.000000  0.000000
17  0.999679  -0.010948  0.000000  0.000000
18  0.999678  -0.010945  0.000000  0.000000
19  1.000000   0.000000 -0.087563 -0.047422
20  1.000000   0.000007  0.000000  0.000000
21  1.000000   0.000000 -0.108649 -0.017680
22  1.000000   0.000002  0.000000  0.000000
--------------------------------------------------

RES_LINE:
    p_from_mw  q_from_mvar   p_to_mw  q_to_mvar         pl_mw       ql_mvar  i_from_ka   i_to_ka      i_ka  vm_from_pu  va_from_degree  vm_to_pu  va_to_degree  loading_percent
0    0.087553     0.043422 -0.087544  -0.043414  9.342199e-06  7.284266e-06   0.003762  0.003762  0.003762    1.000000        0.000007  0.999881     -0.001386         1.635482
1    0.012890     0.004203 -0.012747  -0.004092  1.426901e-04  1.112578e-04   0.019575  0.019575  0.019575    0.999678       -0.010945  0.987143     -0.274332         8.510767
2    0.006828     0.001950 -0.006794  -0.001923  3.409115e-05  2.658143e-05   0.010253  0.010253  0.010253    0.999678       -0.010945  0.994039     -0.142401         4.457848
3    0.014298    -0.002083 -0.014262   0.002111  3.591907e-05  2.800669e-05   0.020862  0.020862  0.020862    0.999678       -0.010945  0.997501     -0.141663         9.070449
4   -0.046799    -0.026475  0.046800   0.026475  1.000210e-06  7.798804e-07   0.002070  0.002070  0.002070    0.999787       -0.002202  0.999810     -0.002004         0.899994
5    0.108639     0.013680 -0.108606  -0.013655  3.225014e-05  2.514596e-05   0.004215  0.004215  0.004215    1.000000        0.000002  0.999679     -0.010948         1.832402
6    0.063984     0.035955 -0.063980  -0.035952  4.166434e-06  3.248637e-06   0.002825  0.002825  0.002825    0.999881       -0.001386  0.999810     -0.002004         1.228382
7   -0.020415    -0.011495  0.020415   0.011495  2.685757e-07  2.094129e-07   0.000902  0.000902  0.000902    0.999772       -0.002326  0.999787     -0.002202         0.392166
8   -0.031579    -0.011853  0.031579   0.011854  5.568316e-07  4.341708e-07   0.001299  0.001299  0.001299    0.999628       -0.012683  0.999648     -0.012325         0.564675
9   -0.011982    -0.002632  0.012075   0.002705  9.307950e-05  7.257562e-05   0.018104  0.018104  0.018104    0.978026       -0.560500  0.986524     -0.324761         7.871461
10  -0.008678    -0.002903  0.008736   0.002949  5.832140e-05  4.547416e-05   0.013490  0.013490  0.013490    0.979059       -0.477765  0.986524     -0.324761         5.865160
11  -0.006804    -0.001337  0.006850   0.001373  4.616356e-05  3.599449e-05   0.010311  0.010311  0.010311    0.970707       -0.777149  0.978026     -0.560500         4.483058
12   0.018555     0.008831 -0.018554  -0.008831  1.461208e-07  1.139328e-07   0.000791  0.000791  0.000791    0.999679       -0.010948  0.999670     -0.011060         0.343993
13   0.056026    -0.000245 -0.056024   0.000246  1.717463e-06  1.339134e-06   0.002157  0.002157  0.002157    0.999679       -0.010948  0.999648     -0.012325         0.937891
14   0.023550     0.006460 -0.023271  -0.006242  2.789868e-04  2.175306e-04   0.035252  0.035252  0.035252    0.999881       -0.001382  0.986524     -0.324761        15.326753
15   0.008374    -0.000850 -0.008288   0.000917  8.663785e-05  6.755296e-05   0.012180  0.012180  0.012180    0.997501       -0.141663  0.988136     -0.663583         5.295464
16  -0.003959    -0.001254  0.003975   0.001266  1.554673e-05  1.212204e-05   0.006099  0.006099  0.006099    0.982768       -0.368594  0.987143     -0.274332         2.651895
--------------------------------------------------

RES_TRAFO:
    p_hv_mw  q_hv_mvar   p_lv_mw  q_lv_mvar    pl_mw   ql_mvar   i_hv_ka   i_lv_ka  vm_hv_pu  va_hv_degree  vm_lv_pu  va_lv_degree  loading_percent
0  0.023560   0.007459 -0.023550  -0.006460  0.00001  0.001000  0.000951  0.035252  0.999881     -0.001386  0.999881     -0.001382         0.247158
1  0.034026   0.005068 -0.034016  -0.004069  0.00001  0.000999  0.001325  0.049464  0.999679     -0.010948  0.999678     -0.010945         0.344124
2  0.087563   0.047422 -0.087553  -0.043422  0.00001  0.004000  0.000821  0.003762  1.000000      0.000000  1.000000      0.000007         0.248950
3  0.108649   0.017680 -0.108639  -0.013680  0.00001  0.004000  0.000908  0.004215  1.000000      0.000000  1.000000      0.000002         0.275194
--------------------------------------------------

RES_EXT_GRID:
       p_mw    q_mvar
0  0.087563  0.047422
1  0.108649  0.017680
--------------------------------------------------

RES_LOAD:
         p_mw    q_mvar
0    0.000000  0.000000
1    0.000000  0.000000
2    0.000000  0.000000
3    0.000000  0.000000
4    0.000000  0.000000
5    0.000000  0.000000
6    0.000000 -0.000000
7   -0.000000 -0.000000
8   -0.000000 -0.000000
9   -0.000000 -0.000000
10  -0.000000 -0.000000
11  -0.000000 -0.000000
12  -0.000000 -0.000000
13  -0.000000 -0.000000
14  -0.000000 -0.000000
15  -0.000000 -0.000000
16   0.000000  0.000000
17   0.000000  0.000000
18   0.000000  0.000000
19   0.000000  0.000000
20   0.000000  0.000000
21   0.000000  0.000000
22   0.000000  0.000000
23   0.002461  0.000588
24   0.000000  0.000000
25   0.000000  0.000000
26   0.000000  0.000000
27   0.000000  0.000000
28   0.000000  0.000000
29   0.000000  0.000000
30   0.000000  0.000000
31   0.000000 -0.000000
32  -0.000000 -0.000000
33  -0.000000 -0.000000
34  -0.000000 -0.000000
35  -0.000000 -0.000000
36  -0.000000 -0.000000
37  -0.000000 -0.000000
38  -0.000000 -0.000000
39   0.000000 -0.000000
40   0.000000  0.000000
41   0.000000  0.000000
42   0.000000  0.000000
43   0.000000  0.000000
44   0.000000  0.000000
45   0.000000  0.000000
46   0.000000  0.000000
47   0.005131  0.001259
48   0.000000  0.000000
49   0.000000  0.000000
50   0.000000  0.000000
51   0.000000  0.000000
52   0.000000  0.000000
53   0.000000  0.000000
54   0.000000  0.000000
55   0.000000  0.000000
56  -0.000000 -0.000000
57  -0.000000 -0.000000
58  -0.000000 -0.000000
59  -0.000000 -0.000000
60  -0.000000 -0.000000
61  -0.000000 -0.000000
62  -0.000000 -0.000000
63   0.000000  0.000000
64   0.000000  0.000000
65   0.000000  0.000000
66  -0.000000  0.000000
67   0.000000  0.000000
68   0.000000  0.000000
69   0.000000  0.000000
70  -0.000000  0.000000
71   0.006804  0.001337
72   0.000000  0.000000
73   0.000000  0.000000
74   0.000000  0.000000
75   0.000000  0.000000
76   0.000000  0.000000
77   0.000000  0.000000
78   0.000000  0.000000
79   0.000000  0.000000
80  -0.000000 -0.000000
81  -0.000000 -0.000000
82  -0.000000 -0.000000
83  -0.000000 -0.000000
84  -0.000000 -0.000000
85  -0.000000 -0.000000
86  -0.000000  0.000000
87   0.000000  0.000000
88   0.000000  0.000000
89   0.000000  0.000000
90   0.000000  0.000000
91   0.000000  0.000000
92   0.000000  0.000000
93   0.000000  0.000000
94   0.000000  0.000000
95   0.008678  0.002903
96   0.000000 -0.000000
97   0.000000 -0.000000
98   0.000000 -0.000000
99   0.000000 -0.000000
100  0.000000 -0.000000
101  0.000000 -0.000000
102  0.000000 -0.000000
103  0.000000 -0.000000
104  0.000000 -0.000000
105 -0.000000 -0.000000
106 -0.000000 -0.000000
107 -0.000000 -0.000000
108 -0.000000 -0.000000
109 -0.000000 -0.000000
110 -0.000000 -0.000000
111  0.000000 -0.000000
112  0.000000 -0.000000
113  0.000000 -0.000000
114  0.000000 -0.000000
115  0.000000 -0.000000
116  0.000000 -0.000000
117  0.000000 -0.000000
118  0.000000 -0.000000
119  0.008288 -0.000917
120  0.000000  0.000000
121  0.000000  0.000000
122  0.000000  0.000000
123  0.000000  0.000000
124  0.000000  0.000000
125  0.000000  0.000000
126  0.000000  0.000000
127  0.000000  0.000000
128  0.000000  0.000000
129 -0.000000 -0.000000
130 -0.000000 -0.000000
131 -0.000000 -0.000000
132 -0.000000 -0.000000
133 -0.000000 -0.000000
134  0.000000 -0.000000
135  0.000000  0.000000
136  0.000000  0.000000
137  0.000000  0.000000
138  0.000000  0.000000
139  0.000000  0.000000
140  0.000000  0.000000
141  0.000000  0.000000
142  0.000000  0.000000
143  0.008772  0.002826
144  0.000000  0.000000
145  0.000000  0.000000
146  0.000000  0.000000
147 -0.000000  0.000000
148  0.000000  0.000000
149  0.000000  0.000000
150  0.000000  0.000000
151 -0.000000 -0.000000
152 -0.000000 -0.000000
153 -0.000000 -0.000000
154 -0.000000 -0.000000
155 -0.000000 -0.000000
156  0.000000  0.000000
157 -0.000000 -0.000000
158 -0.000000 -0.000000
159  0.000000  0.000000
160  0.000000  0.000000
161  0.000000  0.000000
162  0.000000  0.000000
163  0.000000  0.000000
164 -0.000000  0.000000
165  0.000000  0.000000
166  0.000000  0.000000
167  0.003959  0.001254
168  0.000000  0.000000
169  0.000000  0.000000
170  0.000000  0.000000
171  0.000000  0.000000
172  0.000000  0.000000
173  0.000000  0.000000
174  0.000000  0.000000
175  0.000000  0.000000
176 -0.000000 -0.000000
177 -0.000000 -0.000000
178 -0.000000 -0.000000
179 -0.000000 -0.000000
180 -0.000000 -0.000000
181 -0.000000 -0.000000
182 -0.000000 -0.000000
183  0.000000  0.000000
184  0.000000  0.000000
185  0.000000  0.000000
186  0.000000  0.000000
187  0.000000  0.000000
188  0.000000  0.000000
189  0.000000  0.000000
190  0.000000  0.000000
191  0.006794  0.001923
192  0.000000 -0.000000
193  0.000000 -0.000000
194  0.000000 -0.000000
195  0.000000 -0.000000
196  0.000000 -0.000000
197  0.000000 -0.000000
198  0.000000 -0.000000
199  0.000000 -0.000000
...

BUS_GEODATA:
        x      y
0    11.0   48.0
1    25.0   38.0
2    51.0   42.0
3     0.0   64.0
4   129.0  138.0
5   105.0   88.0
6   130.0   92.0
7    81.0  115.0
8   103.0  114.0
9    10.0   70.0
10   20.0   80.0
11   40.0   80.0
12   90.0  120.0
13  120.0  120.0
14  120.0  100.0
15    0.0   40.0
16    0.5   39.5
17  100.0  110.0
18  100.5  109.5
19    0.0    0.0
20    0.5   -0.5
21  100.0    0.0
22  100.5   -0.5
--------------------------------------------------
